/*--------------------------------*- C++ -*----------------------------------*\
| =========                 |                                                 |
| \\      /  F ield         | OpenFOAM: The Open Source CFD Toolbox           |
|  \\    /   O peration     | Version:  v1806                                 |
|   \\  /    A nd           | Web:      www.OpenFOAM.com                      |
|    \\/     M anipulation  |                                                 |
\*---------------------------------------------------------------------------*/
FoamFile
{
    version     2.0;
    format      ascii;
    class       volVectorField;
    location    "0";
    object      U;
}
// * * * * * * * * * * * * * * * * * * * * * * * * * * * * * * * * * * * * * //

dimensions      [0 1 -1 0 0 0 0];

internalField   uniform (0 0 0);

boundaryField
{    
    Inlet
    {
        type            inletOutlet;
        inletValue      uniform (0 0 0);
		value			uniform (0 0 0);
    }
    Outlet
    {
        type            inletOutlet;
        inletValue      uniform (0 0 0);
        value           uniform (0 0 0);
    }	
	Side
	{
		type 			fixedValue;
		value			uniform (0 0 0);
	}
    AMI2
    {
        type            cyclicAMI;
		value			$internalField;
    }
    propeller
    {
        type            movingWallVelocity;
        value           uniform (0 0 0);
    }
	AMI1
	{
		type			cyclicAMI;
		value			$internalField;
	}
}


// ************************************************************************* //
